Version 4
SHEET 1 1028 680
WIRE 768 -368 16 -368
WIRE 768 -304 768 -368
WIRE 768 -304 752 -304
WIRE 784 -304 768 -304
WIRE 384 -272 256 -272
WIRE 672 -224 672 -304
WIRE 864 -224 864 -304
WIRE 384 -160 384 -272
WIRE 576 -160 384 -160
WIRE 384 -144 384 -160
WIRE 384 -144 -112 -144
WIRE 416 -112 64 -112
WIRE 672 -112 672 -160
WIRE 672 -112 416 -112
WIRE 768 -112 672 -112
WIRE 864 -112 864 -160
WIRE 864 -112 768 -112
WIRE 96 0 0 0
WIRE 384 0 384 -144
WIRE 384 0 320 0
WIRE 576 16 576 -160
WIRE 960 16 576 16
WIRE 64 64 64 -112
WIRE 96 64 64 64
WIRE 704 64 320 64
WIRE 704 96 704 64
WIRE 960 96 704 96
WIRE 16 128 16 -368
WIRE 96 128 16 128
WIRE 416 128 416 -112
WIRE 416 128 320 128
WIRE -112 192 -112 -144
WIRE 96 192 -112 192
WIRE 448 192 320 192
WIRE 448 240 448 192
FLAG 0 0 0
FLAG 768 -48 0
FLAG 448 304 0
FLAG 176 -272 0
SYMBOL Misc\\NE555 208 96 R0
SYMATTR InstName U1
SYMBOL voltage 272 -272 R90
WINDOW 123 0 0 Left 2
WINDOW 39 0 0 Left 2
SYMATTR InstName V1
SYMATTR Value 10V
SYMBOL diode 688 -160 R180
WINDOW 0 24 64 Left 2
WINDOW 3 24 0 Left 2
SYMATTR InstName D1
SYMBOL diode 848 -224 R0
SYMATTR InstName D2
SYMBOL res 768 -320 R90
WINDOW 0 0 56 VBottom 2
WINDOW 3 32 56 VTop 2
SYMATTR InstName R1
SYMATTR Value 20K
SYMBOL res 880 -320 R90
WINDOW 0 0 56 VBottom 2
WINDOW 3 32 56 VTop 2
SYMATTR InstName R2
SYMATTR Value 80K
SYMBOL cap 432 240 R0
SYMATTR InstName C1
SYMATTR Value 100nF
SYMBOL cap 752 -112 R0
SYMATTR InstName C2
SYMATTR Value 100nF
SYMBOL res 944 0 R0
SYMATTR InstName R3
SYMATTR Value 500
TEXT -114 328 Left 2 !.tran 50ms
